<edges>
	<edge from="n1" to="n2" id="1to2" type="3L45" speed="120" width="3.75"/>
</edges>