<nodes>
	<node id="n1" x="0" y="0" type="priority"/>
	<node id="n2" x="2000" y="0" type="priority"/>
</nodes>